holo
  PyMOL3.2          3D                             0

121132  0  0  0  0  0  0  0  0999 V2000
   18.0890   46.9550   20.5310 P   0  0  0  0  0  0  0  0  0  0  0  0
   19.7990   44.9540   21.7080 P   0  0  0  0  0  0  0  0  0  0  0  0
   23.7970   45.1140   18.5280 P   0  0  0  0  0  0  0  0  0  0  0  0
   23.3340   42.0020   18.6040 P   0  0  0  0  0  0  0  0  0  0  0  0
   25.8290   43.4560   19.5530 P   0  0  0  0  0  0  0  0  0  0  0  0
   21.8970   43.7580   20.1740 P   0  0  0  0  0  0  0  0  0  0  0  0
   13.7660   47.5960   18.8820 C   0  0  0  0  0  0  0  0  0  0  0  0
   30.1730   41.2890   18.6870 C   0  0  0  0  0  0  0  0  0  0  0  0
    9.4210   46.7050   21.7180 N   0  0  0  0  0  0  0  0  0  0  0  0
   32.0950   39.5560   23.1600 N   0  0  0  0  0  0  0  0  0  0  0  0
   17.8850   47.9540   21.5760 O   0  5  0  0  0  0  0  0  0  0  0  0
   19.3340   44.0080   22.7600 O   0  5  0  0  0  0  0  0  0  0  0  0
   23.8540   46.5810   18.2940 O   0  5  0  0  0  0  0  0  0  0  0  0
   23.2910   40.5330   18.8370 O   0  0  0  0  0  0  0  0  0  0  0  0
   24.4690   42.5540   19.6600 O   0  0  0  0  0  0  0  0  0  0  0  0
   25.8700   44.7720   18.8920 O   0  0  0  0  0  0  0  0  0  0  0  0
   21.8970   42.5070   19.1810 O   0  0  0  0  0  0  0  0  0  0  0  0
   22.6280   44.9180   19.6220 O   0  0  0  0  0  0  0  0  0  0  0  0
    9.6470   46.5910   20.4160 C   0  0  0  0  0  0  0  0  0  0  0  0
   32.3100   39.1500   21.9180 C   0  0  0  0  0  0  0  0  0  0  0  0
   14.8530   48.6630   18.5490 C   0  0  0  0  0  0  0  0  0  0  0  0
   29.8380   39.8950   18.1060 C   0  0  0  0  0  0  0  0  0  0  0  0
   18.8470   47.3250   19.3590 O   0  0  0  0  0  0  0  0  0  0  0  0
   20.6260   46.0630   22.1360 O   0  0  0  0  0  0  0  0  0  0  0  0
   23.3260   44.3240   17.3610 O   0  0  0  0  0  0  0  0  0  0  0  0
   23.4420   42.4120   17.1830 O   0  0  0  0  0  0  0  0  0  0  0  0
   26.4070   43.5950   20.9030 O   0  0  0  0  0  0  0  0  0  0  0  0
   14.3440   49.9270   18.0680 O   0  0  0  0  0  0  0  0  0  0  0  0
   22.3530   43.2290   21.4740 O   0  0  0  0  0  0  0  0  0  0  0  0
   30.5140   39.7030   16.8740 O   0  0  0  0  0  0  0  0  0  0  0  0
   15.7580   47.9860   17.5080 C   0  0  0  0  0  0  0  0  0  0  0  0
   28.3510   40.1640   17.8440 C   0  0  0  0  0  0  0  0  0  0  0  0
   10.7500   46.8120   19.7010 N   0  0  0  0  0  0  0  0  0  0  0  0
   31.8280   39.5960   20.7740 N   0  0  0  0  0  0  0  0  0  0  0  0
   18.3900   45.5460   21.2470 O   0  0  0  0  0  0  0  0  0  0  0  0
   20.3540   44.1370   20.4290 O   0  0  0  0  0  0  0  0  0  0  0  0
   25.8700   44.7720   18.8920 O   0  0  0  0  0  0  0  0  0  0  0  0
   24.4690   42.5540   19.6600 O   0  0  0  0  0  0  0  0  0  0  0  0
   15.2390   48.2740   16.2270 O   0  0  0  0  0  0  0  0  0  0  0  0
   22.6280   44.9180   19.6220 O   0  0  0  0  0  0  0  0  0  0  0  0
   21.8970   42.5070   19.1810 O   0  0  0  0  0  0  0  0  0  0  0  0
   27.7540   39.2320   16.9130 O   0  0  0  0  0  0  0  0  0  0  0  0
   11.7990   47.1900   20.4900 C   0  0  0  0  0  0  0  0  0  0  0  0
   31.1090   40.7150   20.9890 C   0  0  0  0  0  0  0  0  0  0  0  0
   15.5200   46.4640   17.8140 C   0  0  0  0  0  0  0  0  0  0  0  0
   28.3870   41.5900   17.2480 C   0  0  0  0  0  0  0  0  0  0  0  0
   14.1670   46.3470   18.3130 O   0  0  0  0  0  0  0  0  0  0  0  0
   29.4460   42.2760   17.9820 O   0  0  0  0  0  0  0  0  0  0  0  0
   11.6900   47.2640   21.9160 C   0  0  0  0  0  0  0  0  0  0  0  0
   30.9660   41.3180   22.2520 C   0  0  0  0  0  0  0  0  0  0  0  0
   16.5430   45.8430   18.7660 C   0  0  0  0  0  0  0  0  0  0  0  0
   27.0430   42.2910   17.4710 C   0  0  0  0  0  0  0  0  0  0  0  0
   16.6640   46.5790   19.9610 O   0  0  0  0  0  0  0  0  0  0  0  0
   26.9540   42.5550   18.8680 O   0  0  0  0  0  0  0  0  0  0  0  0
   10.4520   46.9920   22.5340 C   0  0  0  0  0  0  0  0  0  0  0  0
   31.4840   40.7130   23.3880 C   0  0  0  0  0  0  0  0  0  0  0  0
   10.2650   47.1420   23.8460 N   0  0  0  0  0  0  0  0  0  0  0  0
   31.3680   41.2380   24.6260 N   0  0  0  0  0  0  0  0  0  0  0  0
   12.9290   47.6610   22.4050 N   0  0  0  0  0  0  0  0  0  0  0  0
   30.2170   42.4240   22.0860 N   0  0  0  0  0  0  0  0  0  0  0  0
   13.7240   47.8230   21.3740 C   0  0  0  0  0  0  0  0  0  0  0  0
   29.8990   42.5030   20.8290 C   0  0  0  0  0  0  0  0  0  0  0  0
   13.1060   47.5710   20.1710 N   0  0  0  0  0  0  0  0  0  0  0  0
   30.4200   41.5060   20.0990 N   0  0  0  0  0  0  0  0  0  0  0  0
   22.2010    6.0890   19.4520 P   0  0  0  0  0  0  0  0  0  0  0  0
   20.3440    3.8960   18.9170 P   0  0  0  0  0  0  0  0  0  0  0  0
   16.9450    2.3260   23.1010 P   0  0  0  0  0  0  0  0  0  0  0  0
   14.5410    3.7000   21.9380 P   0  0  0  0  0  0  0  0  0  0  0  0
   17.9850    3.5570   20.6060 P   0  0  0  0  0  0  0  0  0  0  0  0
   26.4210    7.1500   20.5620 C   0  0  0  0  0  0  0  0  0  0  0  0
   10.0660    1.8300   23.4140 C   0  0  0  0  0  0  0  0  0  0  0  0
   30.7930    5.6690   18.1300 N   0  0  0  0  0  0  0  0  0  0  0  0
    7.7990   -1.1990   19.8790 N   0  0  0  0  0  0  0  0  0  0  0  0
   22.4160    6.7450   18.1440 O   0  5  0  0  0  0  0  0  0  0  0  0
   20.8570    2.6430   18.3770 O   0  5  0  0  0  0  0  0  0  0  0  0
   16.9750    0.8380   23.2480 O   0  5  0  0  0  0  0  0  0  0  0  0
   14.8370    5.0890   22.3380 O   0  5  0  0  0  0  0  0  0  0  0  0
   17.4760    4.9260   20.8660 O   0  5  0  0  0  0  0  0  0  0  0  0
   30.5950    6.0100   19.4140 C   0  0  0  0  0  0  0  0  0  0  0  0
    7.7630   -1.1990   21.2080 C   0  0  0  0  0  0  0  0  0  0  0  0
   25.4430    8.2950   20.6280 C   0  0  0  0  0  0  0  0  0  0  0  0
   10.4020    0.6980   24.3180 C   0  0  0  0  0  0  0  0  0  0  0  0
   21.4760    6.8640   20.4780 O   0  0  0  0  0  0  0  0  0  0  0  0
   19.5610    4.7000   17.9510 O   0  0  0  0  0  0  0  0  0  0  0  0
   17.3170    3.0500   24.3360 O   0  0  0  0  0  0  0  0  0  0  0  0
   14.0210    3.5140   20.5570 O   0  0  0  0  0  0  0  0  0  0  0  0
   26.1450    9.5480   20.7160 O   0  0  0  0  0  0  0  0  0  0  0  0
   17.2890    2.7600   19.5580 O   0  0  0  0  0  0  0  0  0  0  0  0
    9.7060    0.8890   25.5190 O   0  0  0  0  0  0  0  0  0  0  0  0
   24.6770    7.9450   21.9240 C   0  0  0  0  0  0  0  0  0  0  0  0
   11.8500    1.1180   24.4420 C   0  0  0  0  0  0  0  0  0  0  0  0
   29.5080    6.4640   20.0230 N   0  0  0  0  0  0  0  0  0  0  0  0
    8.3730   -0.4260   22.1080 N   0  0  0  0  0  0  0  0  0  0  0  0
   21.7700    4.5490   19.2900 O   0  0  0  0  0  0  0  0  0  0  0  0
   19.5800    3.5560   20.3040 O   0  0  0  0  0  0  0  0  0  0  0  0
   15.3970    2.4950   22.6020 O   0  0  0  0  0  0  0  0  0  0  0  0
   25.3460    8.5320   23.0160 O   0  0  0  0  0  0  0  0  0  0  0  0
   18.0820    2.6800   21.9670 O   0  0  0  0  0  0  0  0  0  0  0  0
   12.5350    0.4500   25.4900 O   0  0  0  0  0  0  0  0  0  0  0  0
   28.4400    6.4870   19.1680 C   0  0  0  0  0  0  0  0  0  0  0  0
    9.0340    0.5710   21.4990 C   0  0  0  0  0  0  0  0  0  0  0  0
   24.8680    6.4170   22.0620 C   0  0  0  0  0  0  0  0  0  0  0  0
   11.7970    2.6480   24.6460 C   0  0  0  0  0  0  0  0  0  0  0  0
   26.1970    6.2030   21.5830 O   0  0  0  0  0  0  0  0  0  0  0  0
   10.6420    3.0520   23.8720 O   0  0  0  0  0  0  0  0  0  0  0  0
   28.5290    6.1240   17.7970 C   0  0  0  0  0  0  0  0  0  0  0  0
    9.0990    0.7300   20.0870 C   0  0  0  0  0  0  0  0  0  0  0  0
   23.8630    5.5330   21.3430 C   0  0  0  0  0  0  0  0  0  0  0  0
   13.0960    3.3700   24.1770 C   0  0  0  0  0  0  0  0  0  0  0  0
   23.6940    5.9840   20.0100 O   0  0  0  0  0  0  0  0  0  0  0  0
   13.1780    3.3990   22.7440 O   0  0  0  0  0  0  0  0  0  0  0  0
   29.7350    5.6490   17.2850 C   0  0  0  0  0  0  0  0  0  0  0  0
    8.4870   -0.2250   19.2720 C   0  0  0  0  0  0  0  0  0  0  0  0
   29.7710    5.1900   16.0240 N   0  0  0  0  0  0  0  0  0  0  0  0
    8.6690   -0.2220   17.9560 N   0  0  0  0  0  0  0  0  0  0  0  0
   27.2950    6.2750   17.2230 N   0  0  0  0  0  0  0  0  0  0  0  0
    9.8210    1.8880   19.8150 N   0  0  0  0  0  0  0  0  0  0  0  0
   26.4890    6.6950   18.1350 C   0  0  0  0  0  0  0  0  0  0  0  0
   10.1820    2.3740   20.9670 C   0  0  0  0  0  0  0  0  0  0  0  0
   27.1120    6.8240   19.3450 N   0  0  0  0  0  0  0  0  0  0  0  0
    9.7470    1.6160   22.0230 N   0  0  0  0  0  0  0  0  0  0  0  0
  1 11  1  0  0  0  0
  1 23  2  0  0  0  0
  1 35  1  0  0  0  0
  1 53  1  0  0  0  0
  2 12  1  0  0  0  0
  2 24  2  0  0  0  0
  2 36  1  0  0  0  0
  3 13  1  0  0  0  0
  3 25  2  0  0  0  0
  3 37  1  0  0  0  0
  4 14  1  0  0  0  0
  4 26  1  0  0  0  0
  4 38  1  0  0  0  0
  5 15  1  0  0  0  0
  5 16  1  0  0  0  0
  5 27  1  0  0  0  0
  5 54  1  0  0  0  0
  6 17  1  0  0  0  0
  6 18  1  0  0  0  0
  6 29  1  0  0  0  0
  6 40  1  0  0  0  0
  6 41  1  0  0  0  0
  7 63  1  0  0  0  0
  8 64  1  0  0  0  0
  9 19  4  0  0  0  0
 10 20  4  0  0  0  0
 19 33  4  0  0  0  0
 20 34  4  0  0  0  0
  7 21  1  0  0  0  0
 21 28  1  0  0  0  0
  8 22  1  0  0  0  0
 22 30  1  0  0  0  0
 21 31  1  0  0  0  0
 31 39  1  0  0  0  0
 22 32  1  0  0  0  0
 32 42  1  0  0  0  0
 33 43  4  0  0  0  0
 34 44  4  0  0  0  0
  2 35  1  0  0  0  0
  6 36  1  0  0  0  0
  5 37  1  0  0  0  0
  5 38  1  0  0  0  0
  3 40  1  0  0  0  0
  4 41  1  0  0  0  0
 31 45  1  0  0  0  0
 45 47  1  0  0  0  0
 32 46  1  0  0  0  0
 46 48  1  0  0  0  0
  7 47  1  0  0  0  0
  8 48  1  0  0  0  0
 43 49  4  0  0  0  0
 49 55  4  0  0  0  0
 44 50  4  0  0  0  0
 50 56  4  0  0  0  0
 45 51  1  0  0  0  0
 46 52  1  0  0  0  0
 51 53  1  0  0  0  0
 52 54  1  0  0  0  0
  9 55  4  0  0  0  0
 55 57  1  0  0  0  0
 10 56  4  0  0  0  0
 56 58  1  0  0  0  0
 49 59  4  0  0  0  0
 50 60  4  0  0  0  0
 59 61  4  0  0  0  0
 60 62  4  0  0  0  0
 43 63  4  0  0  0  0
 61 63  4  0  0  0  0
 44 64  4  0  0  0  0
 62 64  4  0  0  0  0
 65 74  1  0  0  0  0
 65 83  2  0  0  0  0
 65 94  1  0  0  0  0
 65110  1  0  0  0  0
 66 75  1  0  0  0  0
 66 84  2  0  0  0  0
 66 95  1  0  0  0  0
 67 76  1  0  0  0  0
 67 85  2  0  0  0  0
 67 96  1  0  0  0  0
 68 77  1  0  0  0  0
 68 86  2  0  0  0  0
 68111  1  0  0  0  0
 69 78  1  0  0  0  0
 69 88  2  0  0  0  0
 69 98  1  0  0  0  0
 70120  1  0  0  0  0
 71121  1  0  0  0  0
 72 79  4  0  0  0  0
 73 80  4  0  0  0  0
 79 92  4  0  0  0  0
 80 93  4  0  0  0  0
 70 81  1  0  0  0  0
 81 87  1  0  0  0  0
 71 82  1  0  0  0  0
 82 89  1  0  0  0  0
 81 90  1  0  0  0  0
 90 97  1  0  0  0  0
 82 91  1  0  0  0  0
 91 99  1  0  0  0  0
 92100  4  0  0  0  0
 93101  4  0  0  0  0
 66 94  1  0  0  0  0
 69 95  1  0  0  0  0
 68 96  1  0  0  0  0
 67 98  1  0  0  0  0
 90102  1  0  0  0  0
102104  1  0  0  0  0
 91103  1  0  0  0  0
103105  1  0  0  0  0
 70104  1  0  0  0  0
 71105  1  0  0  0  0
100106  4  0  0  0  0
106112  4  0  0  0  0
101107  4  0  0  0  0
107113  4  0  0  0  0
102108  1  0  0  0  0
103109  1  0  0  0  0
108110  1  0  0  0  0
109111  1  0  0  0  0
 72112  4  0  0  0  0
112114  1  0  0  0  0
 73113  4  0  0  0  0
113115  1  0  0  0  0
106116  4  0  0  0  0
107117  4  0  0  0  0
116118  4  0  0  0  0
117119  4  0  0  0  0
100120  4  0  0  0  0
118120  4  0  0  0  0
101121  4  0  0  0  0
119121  4  0  0  0  0
M  END
$$$$
