holo
  PyMOL3.2          3D                             0

 32 29  0  0  0  0  0  0  0  0999 V2000
    6.4990    0.6150   17.7400 C   0  0  0  0  0  0  0  0  0  0  0  0
    6.3840    0.3520   16.3470 O   0  0  0  0  0  0  0  0  0  0  0  0
    5.7270   -0.3600   18.6130 C   0  0  0  0  0  0  0  0  0  0  0  0
    4.3570   -0.3230   18.2440 O   0  0  0  0  0  0  0  0  0  0  0  0
    5.9140   -0.0610   20.0890 C   0  0  0  0  0  0  0  0  0  0  0  0
    5.3190   -1.0720   20.9170 O   0  0  0  0  0  0  0  0  0  0  0  0
    7.4720   -0.0340   20.4130 C   0  0  0  0  0  0  0  0  0  0  0  0
    7.5320    0.4810   21.7220 O   0  0  0  0  0  0  0  0  0  0  0  0
    8.1890    0.9590   19.4030 C   0  0  0  0  0  0  0  0  0  0  0  0
    7.9390    0.5700   18.0530 O   0  0  0  0  0  0  0  0  0  0  0  0
    9.6750    0.9410   19.5730 C   0  0  0  0  0  0  0  0  0  0  0  0
   10.3750    1.7990   18.5980 O   0  0  0  0  0  0  0  0  0  0  0  0
    6.1690    1.5210   17.9150 H   0  0  0  0  0  0  0  0  0  0  0  0
    6.0670   -1.2620   18.4390 H   0  0  0  0  0  0  0  0  0  0  0  0
    5.5190    0.8110   20.3010 H   0  0  0  0  0  0  0  0  0  0  0  0
    7.8610   -0.9320   20.3650 H   0  0  0  0  0  0  0  0  0  0  0  0
    7.8550    1.8680   19.5480 H   0  0  0  0  0  0  0  0  0  0  0  0
    9.8940    1.2390   20.4690 H   0  0  0  0  0  0  0  0  0  0  0  0
    9.9930    0.0300   19.4770 H   0  0  0  0  0  0  0  0  0  0  0  0
  -12.3860   17.2750   21.6410 C   0  0  0  0  0  0  0  0  0  0  0  0
  -12.7610   17.9300   22.6480 O   0  0  0  0  0  0  0  0  0  0  0  0
  -13.0290   17.6910   20.3070 C   0  0  0  0  0  0  0  0  0  0  0  0
  -11.6120   16.3220   21.7010 O   0  0  0  0  0  0  0  0  0  0  0  0
   10.7370    4.3370   21.4250 C   0  0  0  0  0  0  0  0  0  0  0  0
   10.5470    5.3100   21.6850 O   0  0  0  0  0  0  0  0  0  0  0  0
   10.9290    3.3580   21.1610 O   0  0  0  0  0  0  0  0  0  0  0  0
   -7.3500    3.3620   44.6870 C   0  0  0  0  0  0  0  0  0  0  0  0
   -8.6160    2.8270   44.2990 O   0  0  0  0  0  0  0  0  0  0  0  0
   -6.8350    4.2950   43.5620 C   0  0  0  0  0  0  0  0  0  0  0  0
   -7.6250    5.5220   43.6080 O   0  0  0  0  0  0  0  0  0  0  0  0
   -5.4130    4.6750   43.8650 C   0  0  0  0  0  0  0  0  0  0  0  0
   -4.9040    5.7390   43.1040 O   0  0  0  0  0  0  0  0  0  0  0  0
  1  2  1  0  0  0  0
  1 10  1  0  0  0  0
  1 13  1  0  0  0  0
  1  3  1  0  0  0  0
  3  4  1  0  0  0  0
  3  5  1  0  0  0  0
  3 14  1  0  0  0  0
  5  6  1  0  0  0  0
  5  7  1  0  0  0  0
  5 15  1  0  0  0  0
  7  8  1  0  0  0  0
  7  9  1  0  0  0  0
  7 16  1  0  0  0  0
  9 10  1  0  0  0  0
  9 11  1  0  0  0  0
  9 17  1  0  0  0  0
 11 12  1  0  0  0  0
 11 18  1  0  0  0  0
 11 19  1  0  0  0  0
 20 21  4  0  0  0  0
 20 22  1  0  0  0  0
 20 23  4  0  0  0  0
 24 25  1  0  0  0  0
 24 26  2  0  0  0  0
 27 28  1  0  0  0  0
 27 29  1  0  0  0  0
 29 30  1  0  0  0  0
 29 31  1  0  0  0  0
 31 32  1  0  0  0  0
M  END
$$$$
